/*--------------------------------*- C++ -*----------------------------------*\
| =========                 |                                                 |
| \\      /  F ield         | foam-extend: Open Source CFD                    |
|  \\    /   O peration     | Version:     4.0                                |
|   \\  /    A nd           | Web:         http://www.foam-extend.org         |
|    \\/     M anipulation  |                                                 |
\*---------------------------------------------------------------------------*/
FoamFile
{
    version     2.0;
    format      ascii;
    class       dictionary;
    location    "system";
    object      faSolution;
}
// * * * * * * * * * * * * * * * * * * * * * * * * * * * * * * * * * * * * * //
    tauSurfacefirst                                // added 23.07.19: copied from viscoelasticFluidFoam case
    {
        solver            BiCGStab;
        preconditioner   ILU0;

        tolerance         1e-6;
        relTol            0;
        minIter           0;
        maxIter           1000;
    }

    tauSurfacesecond                                // added 23.07.19: copied from viscoelasticFluidFoam case
    {
        solver            BiCGStab;
        preconditioner   ILU0;

        tolerance         1e-6;
        relTol            0;
        minIter           0;
        maxIter           1000;
    }

    tauSurfacethird                                // added 23.07.19: copied from viscoelasticFluidFoam case
    {
        solver            BiCGStab;
        preconditioner   ILU0;

        tolerance         1e-6;
        relTol            0;
        minIter           0;
        maxIter           1000;
    }

// ************************************************************************* //
